Test_Network/condensed/network_18/Feeder_4/Lines.txt
New Line.LINE82 Bus1=80 Bus2=83 phases=3 Linecode=2c_.0225 Length=1.6337 Units=m
New Line.LINE84 Bus1=81 Bus2=85 phases=3 Linecode=4c_.2 Length=0.65744 Units=m
New Line.LINE178 Bus1=174 Bus2=179 phases=3 Linecode=2c_.0225 Length=2.3584 Units=m
New Line.LINE240 Bus1=237 Bus2=241 phases=3 Linecode=25_SAC_PC Length=9.9648 Units=m
New Line.LINE308 Bus1=303 Bus2=309 phases=3 Linecode=25_SAC_PC Length=1.5065 Units=m
New Line.LINE424 Bus1=420 Bus2=425 phases=3 Linecode=2c_.0225 Length=0.54633 Units=m
New Line.LINE466 Bus1=462 Bus2=467 phases=3 Linecode=25_SAC_PC Length=0.4328 Units=m
New Line.LINE487 Bus1=483 Bus2=488 phases=3 Linecode=2c_.0225 Length=2.2152 Units=m
New Line.LINE488 Bus1=483 Bus2=489 phases=3 Linecode=2c_.0225 Length=2.5482 Units=m
New Line.LINE494 Bus1=488 Bus2=495 phases=3 Linecode=3c_.06_UA Length=2.6885 Units=m
New Line.LINE496 Bus1=489 Bus2=497 phases=3 Linecode=3c_.06_UA Length=2.7606 Units=m
New Line.LINE632 Bus1=631 Bus2=633 phases=3 Linecode=4c_.2 Length=0.63909 Units=m
New Line.LINE720 Bus1=716 Bus2=721 phases=3 Linecode=2c_.0225 Length=0.71051 Units=m
New Line.LINE730 Bus1=726 Bus2=731 phases=3 Linecode=2c_.0225 Length=2.1188 Units=m
New Line.LINE731 Bus1=727 Bus2=732 phases=3 Linecode=4c_.007_UA Length=1.4433 Units=m
New Line.LINE748 Bus1=743 Bus2=749 phases=3 Linecode=2c_.0225 Length=4.8645 Units=m
New Line.LINE911 Bus1=905 Bus2=912 phases=3 Linecode=2c_.0225 Length=3.3809 Units=m
New Line.LINE935 Bus1=928 Bus2=936 phases=3 Linecode=2c_.0225 Length=0.78377 Units=m
New Line.LINE941 Bus1=933 Bus2=942 phases=3 Linecode=2c_.0225 Length=4.869 Units=m
New Line.LINE1015 Bus1=1010 Bus2=1016 phases=3 Linecode=2c_.0225 Length=1.5091 Units=m
New Line.LINE1068 Bus1=1064 Bus2=1069 phases=3 Linecode=2c_.0225 Length=2.5977 Units=m
New Line.LINE1074 Bus1=1069 Bus2=1075 phases=3 Linecode=3c_.06_UA Length=5.9513 Units=m
New Line.LINE1090 Bus1=1086 Bus2=1091 phases=3 Linecode=3c_.06_UA Length=5.1457 Units=m
New Line.LINECmpd_0 Bus1=732 Bus2=763 phases=3 Linecode=4c_.075_UA Length=4.87978 Units=m
New Line.LINECmpd_1 Bus1=238 Bus2=462 phases=3 Linecode=25_SAC_PC Length=29.900066 Units=m
New Line.LINECmpd_2 Bus1=489 Bus2=624 phases=3 Linecode=2c_.0225 Length=12.503078 Units=m
New Line.LINECmpd_3 Bus1=1010 Bus2=1112 phases=3 Linecode=2c_.0225 Length=9.682554 Units=m
New Line.LINECmpd_4 Bus1=31 Bus2=81 phases=3 Linecode=4c_.2 Length=50.26773 Units=m
New Line.LINECmpd_5 Bus1=31 Bus2=80 phases=3 Linecode=2c_.0225 Length=18.81148 Units=m
New Line.LINECmpd_6 Bus1=933 Bus2=1116 phases=3 Linecode=2c_.0225 Length=13.007368 Units=m
New Line.LINECmpd_7 Bus1=743 Bus2=994 phases=3 Linecode=2c_.0225 Length=15.716393 Units=m
New Line.LINECmpd_8 Bus1=488 Bus2=617 phases=3 Linecode=2c_.0225 Length=15.192066 Units=m
New Line.LINECmpd_9 Bus1=631 Bus2=726 phases=3 Linecode=2c_.0225 Length=19.26048 Units=m
New Line.LINECmpd_10 Bus1=473 Bus2=625 phases=3 Linecode=4c_.2 Length=29.83415 Units=m
New Line.LINECmpd_11 Bus1=85 Bus2=186 phases=3 Linecode=4c_.2 Length=36.06476 Units=m
New Line.LINECmpd_12 Bus1=763 Bus2=1010 phases=3 Linecode=2c_.0225 Length=19.85121 Units=m
New Line.LINECmpd_13 Bus1=716 Bus2=845 phases=3 Linecode=2c_.0225 Length=11.169188 Units=m
New Line.LINECmpd_14 Bus1=81 Bus2=174 phases=3 Linecode=2c_.0225 Length=32.79054 Units=m
New Line.LINECmpd_15 Bus1=1069 Bus2=1157 phases=3 Linecode=2c_.0225 Length=11.730995 Units=m
New Line.LINECmpd_16 Bus1=420 Bus2=591 phases=3 Linecode=2c_.0225 Length=12.659181 Units=m
New Line.LINECmpd_17 Bus1=254 Bus2=420 phases=3 Linecode=2c_.0225 Length=24.918676 Units=m
New Line.LINECmpd_18 Bus1=703 Bus2=893 phases=3 Linecode=4c_.2 Length=35.68966 Units=m
New Line.LINECmpd_19 Bus1=1 Bus2=31 phases=3 Linecode=4c_.2 Length=38.289262 Units=m
New Line.LINECmpd_20 Bus1=254 Bus2=473 phases=3 Linecode=4c_.2 Length=33.35319 Units=m
New Line.LINECmpd_21 Bus1=991 Bus2=1064 phases=3 Linecode=2c_.0225 Length=10.476169 Units=m
New Line.LINECmpd_22 Bus1=462 Bus2=547 phases=3 Linecode=25_SAC_PC Length=12.04998 Units=m
New Line.LINECmpd_23 Bus1=625 Bus2=703 phases=3 Linecode=4c_.2 Length=12.533753 Units=m
New Line.LINECmpd_24 Bus1=238 Bus2=254 phases=3 Linecode=4c_.2 Length=1.31039 Units=m
New Line.LINECmpd_25 Bus1=905 Bus2=1083 phases=3 Linecode=2c_.0225 Length=10.143813 Units=m
New Line.LINECmpd_26 Bus1=726 Bus2=894 phases=3 Linecode=2c_.0225 Length=11.764199 Units=m
New Line.LINECmpd_27 Bus1=85 Bus2=180 phases=3 Linecode=2c_.0225 Length=34.98571 Units=m
New Line.LINECmpd_28 Bus1=913 Bus2=991 phases=3 Linecode=4c_.2 Length=19.77704 Units=m
New Line.LINECmpd_29 Bus1=763 Bus2=847 phases=3 Linecode=4c_.075_UA Length=28.16945 Units=m
New Line.LINECmpd_30 Bus1=80 Bus2=118 phases=3 Linecode=2c_.0225 Length=8.34936 Units=m
New Line.LINECmpd_31 Bus1=186 Bus2=237 phases=3 Linecode=4c_.06 Length=4.98595 Units=m
New Line.LINECmpd_32 Bus1=703 Bus2=727 phases=3 Linecode=4c_.007_UA Length=3.7894 Units=m
New Line.LINECmpd_33 Bus1=1086 Bus2=1162 phases=3 Linecode=2c_.0225 Length=12.022873 Units=m
New Line.LINECmpd_34 Bus1=186 Bus2=238 phases=3 Linecode=4c_.2 Length=29.06574 Units=m
New Line.LINECmpd_35 Bus1=241 Bus2=278 phases=3 Linecode=2c_.0225 Length=16.24539 Units=m
New Line.LINECmpd_36 Bus1=847 Bus2=928 phases=3 Linecode=2c_.0225 Length=12.31582 Units=m
New Line.LINECmpd_37 Bus1=1064 Bus2=1086 phases=3 Linecode=2c_.0225 Length=2.8674 Units=m
New Line.LINECmpd_38 Bus1=241 Bus2=303 phases=3 Linecode=25_SAC_PC Length=10.811753 Units=m
New Line.LINECmpd_39 Bus1=174 Bus2=215 phases=3 Linecode=2c_.0225 Length=11.65914 Units=m
New Line.LINECmpd_40 Bus1=633 Bus2=716 phases=3 Linecode=2c_.0225 Length=20.223838 Units=m
New Line.LINECmpd_41 Bus1=303 Bus2=353 phases=3 Linecode=25_SAC_PC Length=11.35271 Units=m
New Line.LINECmpd_42 Bus1=928 Bus2=979 phases=3 Linecode=2c_.0225 Length=7.97471 Units=m
New Line.LINECmpd_43 Bus1=913 Bus2=933 phases=3 Linecode=2c_.0225 Length=8.87268 Units=m
New Line.LINECmpd_44 Bus1=893 Bus2=905 phases=3 Linecode=2c_.0225 Length=7.72675 Units=m
New Line.LINECmpd_45 Bus1=893 Bus2=913 phases=3 Linecode=4c_.2 Length=10.2143 Units=m
New Line.LINECmpd_46 Bus1=473 Bus2=483 phases=3 Linecode=2c_.0225 Length=12.3403 Units=m
New Line.LINECmpd_47 Bus1=625 Bus2=631 phases=3 Linecode=4c_.2 Length=1.2161 Units=m
New Line.LINECmpd_48 Bus1=727 Bus2=743 phases=3 Linecode=2c_.0225 Length=14.84252 Units=m
